//WEGSCDX JOB (),COMPILE.SMFSELECT,CLASS=A,MSGCLASS=A,REGION=2M
//       EXEC ASMFCL
//ASM.SYSIN DD *
         TITLE 'STACK Macro'                                            00592014
         MACRO                                                          00593014
&NAME    STACK &TYPE,&LOC=,&LEN=,&STACK=,&ADDR=                         00594014
         LCLC  &LENREG,&STKREG,&ADDREG,&LOCTN                           00595014
         AIF   ('&TYPE(1)' EQ 'PUSH').PUSH01                            00596014
         AIF   ('&TYPE(1)' EQ 'POP').POP01                              00597014
         AIF   ('&TYPE(1)' EQ 'INIT').INIT01                            00598014
         AIF   ('&TYPE(1)' EQ 'TERM').TERM01                            00599014
         MNOTE 8,'TYPE must be INIT, PUSH, POP, or TERM'                00600014
         AGO   .MEND                                                    00601014
.*                                                                      00602014
.INIT01  ANOP                                                           00603014
         AIF   ('&LEN' EQ '').INITE01                                   00604014
         AIF   ('&LEN'(1,1) NE '(').INIT02                              00605014
&LENREG  SETC  '&LEN(1)'                                                00606014
         AIF   ('&LENREG' NE  '1').INIT03                               00607014
         MNOTE 8,'LEN= register must be 0 or 2-15'                      00608014
         AGO   .MEND                                                    00609014
         AGO   .INIT03                                                  00610014
.INIT02  ANOP                                                           00611014
&LENREG  SETC  'R0'                                                     00612014
         LA    &LENREG,&LEN Length of Stack                             00613014
.INIT03  ANOP                                                           00614014
&LOCTN   SETC  '&LOC'                                                   00615014
         AIF   ('&LOC' NE '').INIT04                                    00616014
&LOCTN   SETC  'ANY'                                                    00617014
.INIT04  ANOP                                                           00618014
         LA    R1,StackHdr_Length       Length of header                00619014
         AR    &LENREG,R1               Bump length                     00620014
         STORAGE OBTAIN,                Go get our storage             +00621014
               LENGTH=(&LENREG),         this long                     +00622014
               LOC=&LOCTN                anywhere                       00623014
         ST    R0,StackHdr_StackLen-StackHdr(0,R1) Save length          00624014
         LA    R0,StackHdr_Length(0,R1) A(Current top of stack)         00625014
         ST    R0,StackHdr_NAB-StackHdr(0,R1) Save A(Next Avail Byte)   00626014
         AIF   ('&STACK' EQ '').INIT99                                  00627014
         AIF   ('&STACK'(1,1) EQ '(').INIT92                            00628014
         ST    R1,&STACK                Save Stack origin               00629014
         AGO   .INIT99                                                  00630014
.INIT92  ANOP                                                           00631014
         LR    &STACK(1),R1             Load return register            00632014
         AGO   .INIT99                                                  00633014
.INIT99  ANOP                                                           00634014
         AIF   (D'Stack).MEND                                           00635014
Stack               DSECT                                               00636014
                                                                        00637014
*-------------------------------------------------------------------*   00638014
*                                                                   *   00639014
*   This is a LIFO stack that is used by various procedures in the  *   00640014
*  program to acquire storage. The Stack is GETMAINed at the beg-   *   00641014
*  inning of the program, and is typically used by procedures to    *   00642014
*  acquire storage for local variables (i.e., variables that are    *   00643014
*  used only within the procedures), although the main procedure    *   00644014
*  also uses a stack area to store Global variables (i.e., those    *   00645014
*  that are available throughout the program).                      *   00646014
*                                                                   *   00647014
*-------------------------------------------------------------------*   00648014
                                                                        00649014
StackHdr            EQU   *           Start of Header                   00650014
StackHdr_StackLen   DS    FL4          Length of Stack                  00651014
StackHdr_NAB        DS    AL4          A(Next Available Byte in Stack)  00652014
StackHdr_Length     EQU   *-StackHdr  Length of Header                  00653014
                                                                        00654014
&SYSECT  &SYSSTYP                                                       00655014
         AGO   .MEND                                                    00656014
.INITE01 ANOP                                                           00657014
         MNOTE 8,'LEN must be specified for STACK INIT'                 00658014
         AGO   .MEND                                                    00659014
.*                                                                      00660014
.PUSH01  ANOP                                                           00661014
         AIF   ('&STACK' EQ '').PUSM02                                  00662014
         AIF   ('&STACK'(1,1) NE '(').PUSH01A                           00663014
&STKREG  SETC  '&STACK(1)'                                              00664014
         AGO   .PUSH02                                                  00665014
.PUSH01A ANOP                                                           00666014
&STKREG  SETC  'R15'                                                    00667014
         L     &STKREG,&STACK           A(Stack Origin)                 00668014
.PUSH02  ANOP                                                           00669014
         AIF   ('&LEN' EQ '').PUSHE01                                   00670014
         AIF   ('&LEN'(1,1) NE '(').PUSH03                              00671014
&LENREG  SETC  '&LEN(1)'                                                00672014
         AGO   .PUSH04                                                  00673014
.PUSH03  ANOP                                                           00674014
&LENREG  SETC  'R0'                                                     00675014
.PUSH04  ANOP                                                           00676014
         LA    &LENREG,&LEN                                             00677014
         LA    R1,7                     Make                            00678014
         AR    &LENREG,R1                a                              00679014
         SRL   &LENREG,3                 doubleword                     00680014
         SLL   &LENREG,3                 multiple                       00681014
         L     R1,StackHdr_NAB-StackHdr(0,&STKREG) A(Next Avail Byte)   00682014
         AR    R1,&LENREG               Bump by length requested        00683014
         SLR   R1,&STKREG               Get Stack used                  00684014
         C     R1,StackHdr_StackLen-StacKHdr(0,&STKREG) Too much?       00685014
         BL    *+8                      No, OK                          00686014
         BAL   R14,0                    ABEND                           00687014
         ALR   R1,&STKREG               No, offset to address           00688014
         ST    R1,StackHdr_NAB-StackHdr(0,&STKREG) A(Next Avail Byte)   00689014
         SLR   R1,&LENREG               A(Start of storage area)        00690014
         AIF   ('&ADDR' EQ '').MEND                                     00691014
         AIF   ('&ADDR'(1,1) NE '(').PUSH92                             00692014
         LR    &ADDR(1),R1             Load return register             00693014
         AGO   .MEND                                                    00694014
.PUSH92  ANOP                                                           00695014
         ST    R1,&ADDR                 Save Stack origin               00696014
         AGO   .MEND                                                    00697014
.PUSHE01 ANOP                                                           00698014
         MNOTE 8,'LEN must be specified for STACK PUSH'                 00699014
         AGO   .MEND                                                    00700014
.PUSHE02 ANOP                                                           00701014
         MNOTE 8,'STACK must be specified for STACK PUSH'               00702014
         AGO   .MEND                                                    00703014
.*                                                                      00704014
.POP01   ANOP                                                           00705014
         AIF   ('&ADDR' EQ '').POPE01                                   00706014
         AIF   ('&ADDR'(1,1) NE '(').POP02                              00707014
&ADDREG  SETC  '&ADDR(1)'                                               00708014
         AGO   .POP02A                                                  00709014
.POP02   ANOP                                                           00710014
&ADDREG  SETC  'R0'                                                     00711014
         L     &ADDREG,&ADDR                                            00712014
.POP02A  ANOP                                                           00713014
         AIF   ('&STACK' EQ '').POPE02                                  00714014
         AIF   ('&STACK'(1,1) NE '(').POP03                             00715014
&STKREG  SETC  '&STACK(1)'                                              00716014
         AGO   .POP04                                                   00717014
.POP03   ANOP                                                           00718014
&STKREG  SETC  'R15'                                                    00719014
         L     &STKREG,&STACK           A(Stack Origin)                 00720014
.POP04   ANOP                                                           00721014
         ST    &ADDREG,StackHdr_NAB-StackHdr(0,&STKREG)                 00722014
         AGO   .MEND                                                    00723014
.POPE01  ANOP                                                           00724014
         MNOTE 8,'ADDR must be specified for STACK POP'                 00725014
         AGO   .MEND                                                    00726014
.POPE02  ANOP                                                           00727014
         MNOTE 8,'STACK must be specified for STACK POP'                00728014
         AGO   .MEND                                                    00729014
.*                                                                      00730014
.TERM01  ANOP                                                           00731014
         AIF   ('&STACK' EQ '').TERME02                                 00732014
         AIF   ('&STACK'(1,1) NE '(').TERM03                            00733014
&STKREG  SETC  '&STACK(1)'                                              00734014
         AGO   .TERM04                                                  00735014
.TERM03  ANOP                                                           00736014
&STKREG  SETC  'R15'                                                    00737014
         L     &STKREG,&STACK           A(Stack Origin)                 00738014
.TERM04  ANOP                                                           00739014
         L     R0,StackHdr_StackLen-StackHdr(0,&STKREG) Length          00740014
         STORAGE RELEASE,               Free our storage               +00741014
               ADDR=(&STKREG),           starting here                 +00742014
               LENGTH=(0)                for this long                  00743014
         AGO   .MEND                                                    00744014
.TERME02 ANOP                                                           00745014
         MNOTE 8,'STACK must be specified for STACK TERM'               00746014
         AGO   .MEND                                                    00747014
.*                                                                      00748014
.MEND    ANOP                                                           00749014
         MEND                                                           00750014
         TITLE 'Assembly Variables'                                     00001014
         LCLC  &VERSION                                  @RWS 15-11-13  00002032
         LCLC  &CPERSON                                  @RWS 15-11-13  00003032
&VERSION SETC  'V1.72'                                   @RWS 15-11-13  00004032
&CPERSON SETC  'RWSUHR'                                  @RWS 15-11-13  00005032
                                                                        00006014
         LCLC  &ASMDT                                                   00007014
*&ASMDT  SETC  '&SYSDATC'(1,4).'-'.'&SYSDATC'(5,2).'-'.'&SYSDATC'(7,2)  00008028
&ASMDT   SETC  '2020-04-14'                                             00008029
SMFSLCT  TITLE 'Introduction'                                           00009014
*********************************************************************   00010014
*                                                                   *   00011014
*                 S  M  F  S  L  C  T                               *   00012014
*                                                                   *   00013014
*   This program will read SMF data (from the MAN datasets or output*   00014014
*  from IFASMFDP), and will select records according to user        *   00015014
*  specified criteria. Records can be selected by date and time,    *   00016014
*  by record type (and /or subtype), by Jobname, or by data at an   *   00017014
*  offset within the record. Records must meet date/time and        *   00018014
*  record type criteria before being eligible for selection, as     *   00019014
*  determined by Jobname and/or data specifications.                *   00020014
*                                                                   *   00021014
*   By default, any records selected from the input will be printed *   00022014
*  to SYSPRINT, unless 'PRINT=NO' is specified in the SYSIN control *   00023014
*  cards. If SYSUT2 is present, the selected input records will     *   00024014
*  also be written to it.                                           *   00025014
*                                                                   *   00026014
*   Multiple output files with different selection criteria can be  *   00027014
*  produced in one run of SMFSLCT. The output DDNames and selection *   00028014
*  criteria are specified in the control cards in SYSIN.            *   00029014
*                                                                   *   00030014
*   Two user-written exits can be used with SMFSLCT - the first     *   00031014
*  is given control after an SMF record is read, and the second     *   00032014
*  after an SMF record has been selected.                           *   00033014
*                                                                   *   00034014
*  Input:                                                           *   00035014
*      SYSUT1   - SMF dataset - either the output from IFASMFDP or  *   00036014
*                 one of the SYS1.MAN datasets. If this DDName is   *   00037014
*                 not allocated, it will be dynamically allocated to*   00038014
*                 the active SMF dataset.                           *   00039014
*      SYSIN    - Control cards (see below).                        *   00040014
*                                                                   *   00041014
*  Output:                                                          *   00042014
*      SYSPRINT - Error messages, selected SMF records.             *   00043014
*      SYSUT2   - optional, selected SMF records.                   *   00044014
*                                                                   *   00045014
*  Attributes:                                                      *   00046014
*      Re-entrant, Reuseable, Refreshable, Not Authorized,          *   00047014
*      AMODE(31), RMODE(ANY)                                        *   00048014
*                                                                   *   00049014
*  Coding    : All data areas in Dynamic Storage have names starting*   00050014
*   Notes       with '@'. One area of Dynamic Storage is acquired   *   00051014
*               during initialization, and is used as a LIFO stack  *   00052014
*               for dynamic storage.                                *   00053014
*              Conversely, data areas within the program (and thus  *   00054014
*               are read-only) have names that do not start with    *   00055014
*               an '@'.                                             *   00056014
*                                                                   *   00057014
*              The names of the Routines (and non-data labels within*   00058014
*               the routines) follow the pattern:                   *   00059014
*                 xnnnn                                             *   00060014
*               where x    is 1 or more alphabetic characters       *   00061014
*                     nnnn is a numeric sequence number             *   00062014
*                                                                   *   00063014
*              Data in dynamic storage that are globally accessible *   00064014
*               have names of the form:                             *   00065014
*                @_anyname                                          *   00066014
*              Data associated with a routine typically have names: *   00067014
*                 x_anyname or @x_anyname                           *   00068014
*               where 'x' is the alphabetic character associated    *   00069014
*                         with the routine                          *   00070014
*              Addressability to globally-accessible dynamic data is*   00071014
*               via R12; local dynamic data is addressable via R13. *   00072014
*                                                                   *   00073014
*              Each routine establishes it's own base register(s),  *   00074014
*               and has access only to it's own read-only variables.*   00075014
*               Base registers are typically R11.                   *   00076014
*                                                                   *   00077014
*  Sample Installation JCL:                                         *   00078014
*                                                                   *   00079014
*  //SMFSLCTA JOB blah,blah                                         *   00080014
*  //*                                                              *   00081014
*  //ASM     EXEC PGM=ASMA90,REGION=4M,                             *   00082014
*  //             PARM='NODECK,OBJECT,RENT,XREF(SHORT),NOALIGN'     *   00083014
*  //SYSPRINT  DD SYSOUT=*                                          *   00084014
*  //SYSLIB    DD DISP=SHR,DSN=SYS1.MACLIB                          *   00085014
*  //          DD DISP=SHR,DSN=SYS1.MODGEN                          *   00086014
*  //SYSUT1    DD DSN=&&SYSUT1,SPACE=(4096,(120,120),,,ROUND),      *   00087014
*  //             UNIT=SYSALLDA                                     *   00088014
*  //SYSLIN    DD DSN=&&OBJ,SPACE=(3040,(40,40),,,ROUND),           *   00089014
*  //             UNIT=SYSALLDA,DISP=(MOD,PASS),                    *   00090014
*  //             DCB=(BLKSIZE=3040,LRECL=80,RECFM=FB)              *   00091014
*  //SYSIN     DD DISP=SHR,DSN=source-program                       *   00092014
*  //*                                                              *   00093014
*  //LKED    EXEC PGM=HEWL,REGION=4M,COND=(0,LT),                   *   00094014
*  //             PARM='LIST,MAP,RENT,REUS,REFR'                    *   00095014
*  //SYSPRINT  DD SYSOUT=*                                          *   00096014
*  //SYSLIN    DD DSN=&&OBJ,DISP=(OLD,DELETE)                       *   00097014
*  //          DD DDNAME=SYSIN                                      *   00098014
*  //SYSUT1    DD DSN=&&SYSUT1,SPACE=(1024,(120,120),,,ROUND)       *   00099014
*  //             UNIT=SYSALLDA                                     *   00100014
*  //SYSLMOD   DD DISP=SHR,DSN=loadlib                              *   00101014
*  //                                                               *   00102014
*                                                                   *   00103014
*  Change Log:                                                      *   00104014
*      1999/04/24 SDDA030 V1.1                                      *   00105014
*                 Added code to ignore records invalidly spanned    *   00106014
*                 in non-VSAM VBS input.                            *   00107014
*                 Calculated DCB=NCP (BSAM), DCB=BUFNO (QSAM), or   *   00108014
*                 AMP=BUFSP (VSAM) so we can read a cylinder of     *   00109014
*                 input at a time (if input on DASD).               *   00110014
*                 Used MACRF=PM on output file(s), so VBS datasets  *   00111014
*                 can be created.                                   *   00112014
*                 Lives and executes in 31-bit mode.                *   00113014
*                 Used internal LIFO stack for dynamic storage      *   00114014
*                 Made Y2K compliant!                               *   00115014
*      1999/07/22 SDDA030 V1.2                                      *   00116014
*                 Added Date conversion routines.                   *   00117014
*                 Added new START=/END= date keywords.              *   00118014
*                 Added 24-bit EODAD for SYSIN, if required         *   00119014
*      1999/11/18 SDDA030 V1.3                                      *   00120014
*                 Moved SYSUT1 OPEN logic(?) to its own subroutine  *   00121014
*                 (I0010)                                           *   00122014
*                 Added comments                                    *   00123014
*                                                                   *   00124014
*      2002/02/07 SDDA030 V1.4                                      *   00125014
*                 Added stack below the line.                       *   00126014
*                 Added new parms for exits as suggested by Dave    *   00127014
*                 Alcock.                                           *   00128014
*                 Added parms to INEXIT=/OUTEXIT= statements.       *   00129014
*                 Defaulted 2-digit years on START=/END= to the     *   00130014
*                 current century.                                  *   00131014
*                 Corrected S0C4 Abends when lots of record types   *   00132014
*                 or jobnames selected (Thanks to Paul              *   00133014
*                 Luttenberger).                                    *   00134014
*                 Changed RDJFCBs to SWAREQs.                       *   00135014
*                 Corrected logic when setting DCB characteristics  *   00136014
*                 for new output datasets with no DCB spacified.    *   00137014
*                 Printed **VIO** for volser when appropriate.      *   00138014
*      2006/10/26 SDDA030 V1.5                                      *   00139014
*                 Fixed bug when printing record subtypes to be     *   00140014
*                 selected (thanks to BBordonaro).                  *   00141014
*                 Corrected calculation of SYSPRINT LRECL (fixed    *   00142014
*                 check for CC) (thanks to Martin Samson).          *   00143014
*                 Corrected non-re-entrancy error with SYSUT1 EXLST *   00144014
*                 (thanks to Martin Samson - again!).               *   00145014
*                                                                   *   00146034
*      2013-03-19 RWSUHR  V1.6                                      *   00147014
*                 Set return code to 8 if nothing is selected       *   00148014
*                                                                   *   00149014
*      2015-10-21 RWSUHR  V1.7                                      *   00150014
*                                                                   *   00151014
*      2015-11-13 RWSUHR  V1.72 - @RWS                              *   00152033
*                 Fixed an S0C7, when OUTPUT= was specified         *   00153028
*                 added assembly date and time and change person    *   00154029
*                 ID (ID of person who last changed this program)   *   00155029
*                 Roger W. Suhr (State of Indiana - IOT)            *   00156034
*                                                                   *   00157034
*  Author:                                                          *   00158014
*   All comments, criticisms and suggestions gratefully received.   *   00159014
*     Paul Dion  (pdion@canada.com)                                 *   00160014
*                                                                   *   00161014
*********************************************************************   00162014
         TITLE 'Control Cards'                                          00163014
*********************************************************************   00164014
*                                                                   *   00165014
*                 C o n t r o l   C a r d s                         *   00166014
*                                                                   *   00167014
*   Control cards are entered via SYSIN. Only columns 1-72 are      *   00168014
*  scanned, and the scan terminates with the first blank. Cont-     *   00169014
*  inuations are not allowed, but keywords can be specified more    *   00170014
*  than once. If a keyword that has a single value (ie, START=)     *   00171014
*  is specified more than once within an output group, or globally, *   00172014
*  the last value specified is used.                                *   00173014
*                                                                   *   00174014
*   OUTPUT=DDName                                                   *   00175014
*      specifies the DDName of an output dataset. All subsequent    *   00176014
*                control statements, until the next "OUTPUT="       *   00177014
*                statement or end-of-file, determine which input    *   00178014
*                records will be selected to this DDName. All       *   00179014
*                control statements appearing before an "OUTPUT="   *   00180014
*                statement apply to all output DDNames, unless      *   00181014
*                specifically overridden by control statements      *   00182014
*                entered after the "OUTPUT=" statement.             *   00183014
*                                                                   *   00184014
*   START=yyddd-hhmmss                                              *   00185014
*         yyyyddd-hhmmss                                            *   00186014
*         TODAY-hhmmss                                              *   00187014
*         (TODAY-n)-hhmmss                                          *   00188014
*         YESTERDAY-hhmmss                                          *   00189014
*         THISWEEK-hhmmss                                           *   00190014
*         LASTWEEK-hhmmss                                           *   00191014
*         THISMONTH-hhmmss                                          *   00192014
*         LASTMONTH-hhmmss                                          *   00193014
*      specifies the date and time at which selection of input      *   00194014
*                records is to start. Defaults to 00000-000000 (ie  *   00195014
*                the start of the input file). The specification of *   00196014
*                time (-hhmmss) is optional - if omitted, it def-   *   00197014
*                aults to 00:00:00.00.                              *   00198014
*                Dates using the 2-digit year format will default   *   00199014
*                to dates in the current century.                   *   00200014
*                YESTERDAY is equivalent to specifying (TODAY-1).   *   00201014
*                Note that a week starts on Monday, and ends on     *   00202014
*                Sunday. Thus, specifying START=LASTWEEK will start *   00203014
*                selecting records from the Monday of the previous  *   00204014
*                week.                                              *   00205014
*                                                                   *   00206014
*   END=yyddd-hhmmss                                                *   00207014
*       yyyyddd-hhmmss                                              *   00208014
*       TODAY-hhmmss                                                *   00209014